<?xml version="1.0" encoding="UTF-8"?>

<!-- generated on 2026-01-22T14:39:34.178231+01:00 by Eclipse SUMO netconvert 1.25.0
<netconvertConfiguration xmlns:xsi="http://www.w3.org/2001/XMLSchema-instance" xsi:noNamespaceSchemaLocation="http://sumo.dlr.de/xsd/netconvertConfiguration.xsd">

    <input>
        <node-files value="nodes.nod.xml"/>
        <edge-files value="edges.edg.xml"/>
    </input>

    <output>
        <output-file value="intersection.net.xml"/>
    </output>

    <tls_building>
        <tls.guess value="true"/>
    </tls_building>

</netconvertConfiguration>
-->

<net version="1.20" junctionCornerDetail="5" limitTurnSpeed="5.50" xmlns:xsi="http://www.w3.org/2001/XMLSchema-instance" xsi:noNamespaceSchemaLocation="http://sumo.dlr.de/xsd/net_file.xsd">

    <location netOffset="500.00,500.00" convBoundary="0.00,0.00,1000.00,1000.00" origBoundary="-500.00,-500.00,500.00,500.00" projParameter="!"/>

    <edge id=":E_0" function="internal">
        <lane id=":E_0_0" index="0" speed="3.65" length="4.67" shape="1000.00,498.40 1001.20,499.20 1001.60,500.00 1001.20,500.80 1000.00,501.60"/>
    </edge>
    <edge id=":N_0" function="internal">
        <lane id=":N_0_0" index="0" speed="3.65" length="4.67" shape="501.60,1000.00 500.80,1001.20 500.00,1001.60 499.20,1001.20 498.40,1000.00"/>
    </edge>
    <edge id=":S_0" function="internal">
        <lane id=":S_0_0" index="0" speed="3.65" length="4.67" shape="498.40,0.00 499.20,-1.20 500.00,-1.60 500.80,-1.20 501.60,0.00"/>
    </edge>
    <edge id=":TL_0" function="internal">
        <lane id=":TL_0_0" index="0" speed="6.51" length="9.03" shape="498.40,507.20 498.05,504.75 497.00,503.00 495.25,501.95 492.80,501.60"/>
    </edge>
    <edge id=":TL_1" function="internal">
        <lane id=":TL_1_0" index="0" speed="13.00" length="14.40" shape="498.40,507.20 498.40,492.80"/>
    </edge>
    <edge id=":TL_2" function="internal">
        <lane id=":TL_2_0" index="0" speed="8.00" length="4.07" shape="498.40,507.20 498.95,503.35 499.04,503.20"/>
    </edge>
    <edge id=":TL_3" function="internal">
        <lane id=":TL_3_0" index="0" speed="3.65" length="1.44" shape="498.40,507.20 499.20,506.00"/>
    </edge>
    <edge id=":TL_16" function="internal">
        <lane id=":TL_16_0" index="0" speed="8.00" length="10.13" shape="499.04,503.20 500.60,500.60 503.35,498.95 507.20,498.40"/>
    </edge>
    <edge id=":TL_17" function="internal">
        <lane id=":TL_17_0" index="0" speed="3.65" length="3.23" shape="499.20,506.00 500.00,505.60 500.80,506.00 501.60,507.20"/>
    </edge>
    <edge id=":TL_4" function="internal">
        <lane id=":TL_4_0" index="0" speed="6.51" length="9.03" shape="507.20,501.60 504.75,501.95 503.00,503.00 501.95,504.75 501.60,507.20"/>
    </edge>
    <edge id=":TL_5" function="internal">
        <lane id=":TL_5_0" index="0" speed="13.00" length="14.40" shape="507.20,501.60 492.80,501.60"/>
    </edge>
    <edge id=":TL_6" function="internal">
        <lane id=":TL_6_0" index="0" speed="8.00" length="4.07" shape="507.20,501.60 503.35,501.05 503.20,500.96"/>
    </edge>
    <edge id=":TL_7" function="internal">
        <lane id=":TL_7_0" index="0" speed="3.65" length="1.44" shape="507.20,501.60 506.00,500.80"/>
    </edge>
    <edge id=":TL_18" function="internal">
        <lane id=":TL_18_0" index="0" speed="8.00" length="10.13" shape="503.20,500.96 500.60,499.40 498.95,496.65 498.40,492.80"/>
    </edge>
    <edge id=":TL_19" function="internal">
        <lane id=":TL_19_0" index="0" speed="3.65" length="3.23" shape="506.00,500.80 505.60,500.00 506.00,499.20 507.20,498.40"/>
    </edge>
    <edge id=":TL_8" function="internal">
        <lane id=":TL_8_0" index="0" speed="6.51" length="9.03" shape="501.60,492.80 501.95,495.25 503.00,497.00 504.75,498.05 507.20,498.40"/>
    </edge>
    <edge id=":TL_9" function="internal">
        <lane id=":TL_9_0" index="0" speed="13.00" length="14.40" shape="501.60,492.80 501.60,507.20"/>
    </edge>
    <edge id=":TL_10" function="internal">
        <lane id=":TL_10_0" index="0" speed="8.00" length="4.07" shape="501.60,492.80 501.05,496.65 500.96,496.80"/>
    </edge>
    <edge id=":TL_11" function="internal">
        <lane id=":TL_11_0" index="0" speed="3.65" length="1.44" shape="501.60,492.80 500.80,494.00"/>
    </edge>
    <edge id=":TL_20" function="internal">
        <lane id=":TL_20_0" index="0" speed="8.00" length="10.13" shape="500.96,496.80 499.40,499.40 496.65,501.05 492.80,501.60"/>
    </edge>
    <edge id=":TL_21" function="internal">
        <lane id=":TL_21_0" index="0" speed="3.65" length="3.23" shape="500.80,494.00 500.00,494.40 499.20,494.00 498.40,492.80"/>
    </edge>
    <edge id=":TL_12" function="internal">
        <lane id=":TL_12_0" index="0" speed="6.51" length="9.03" shape="492.80,498.40 495.25,498.05 497.00,497.00 498.05,495.25 498.40,492.80"/>
    </edge>
    <edge id=":TL_13" function="internal">
        <lane id=":TL_13_0" index="0" speed="13.00" length="14.40" shape="492.80,498.40 507.20,498.40"/>
    </edge>
    <edge id=":TL_14" function="internal">
        <lane id=":TL_14_0" index="0" speed="8.00" length="4.07" shape="492.80,498.40 496.65,498.95 496.80,499.04"/>
    </edge>
    <edge id=":TL_15" function="internal">
        <lane id=":TL_15_0" index="0" speed="3.65" length="1.44" shape="492.80,498.40 494.00,499.20"/>
    </edge>
    <edge id=":TL_22" function="internal">
        <lane id=":TL_22_0" index="0" speed="8.00" length="10.13" shape="496.80,499.04 499.40,500.60 501.05,503.35 501.60,507.20"/>
    </edge>
    <edge id=":TL_23" function="internal">
        <lane id=":TL_23_0" index="0" speed="3.65" length="3.23" shape="494.00,499.20 494.40,500.00 494.00,500.80 492.80,501.60"/>
    </edge>
    <edge id=":W_0" function="internal">
        <lane id=":W_0_0" index="0" speed="3.65" length="4.67" shape="0.00,501.60 -1.20,500.80 -1.60,500.00 -1.20,499.20 0.00,498.40"/>
    </edge>

    <edge id="E2TL" from="E" to="TL" priority="-1">
        <lane id="E2TL_0" index="0" speed="13.00" length="492.80" shape="1000.00,501.60 507.20,501.60"/>
    </edge>
    <edge id="N2TL" from="N" to="TL" priority="-1">
        <lane id="N2TL_0" index="0" speed="13.00" length="492.80" shape="498.40,1000.00 498.40,507.20"/>
    </edge>
    <edge id="S2TL" from="S" to="TL" priority="-1">
        <lane id="S2TL_0" index="0" speed="13.00" length="492.80" shape="501.60,0.00 501.60,492.80"/>
    </edge>
    <edge id="TL2E" from="TL" to="E" priority="-1">
        <lane id="TL2E_0" index="0" speed="13.00" length="492.80" shape="507.20,498.40 1000.00,498.40"/>
    </edge>
    <edge id="TL2N" from="TL" to="N" priority="-1">
        <lane id="TL2N_0" index="0" speed="13.00" length="492.80" shape="501.60,507.20 501.60,1000.00"/>
    </edge>
    <edge id="TL2S" from="TL" to="S" priority="-1">
        <lane id="TL2S_0" index="0" speed="13.00" length="492.80" shape="498.40,492.80 498.40,0.00"/>
    </edge>
    <edge id="TL2W" from="TL" to="W" priority="-1">
        <lane id="TL2W_0" index="0" speed="13.00" length="492.80" shape="492.80,501.60 0.00,501.60"/>
    </edge>
    <edge id="W2TL" from="W" to="TL" priority="-1">
        <lane id="W2TL_0" index="0" speed="13.00" length="492.80" shape="0.00,498.40 492.80,498.40"/>
    </edge>

    <tlLogic id="TL" type="static" programID="0" offset="0">
        <phase duration="42" state="GGggrrrrGGggrrrr"/>
        <phase duration="3"  state="yyyyrrrryyyyrrrr"/>
        <phase duration="42" state="rrrrGGggrrrrGGgg"/>
        <phase duration="3"  state="rrrryyyyrrrryyyy"/>
    </tlLogic>

    <junction id="E" type="priority" x="1000.00" y="500.00" incLanes="TL2E_0" intLanes=":E_0_0" shape="1000.00,500.00 1000.00,496.80 1000.00,500.00">
        <request index="0" response="0" foes="0" cont="0"/>
    </junction>
    <junction id="N" type="priority" x="500.00" y="1000.00" incLanes="TL2N_0" intLanes=":N_0_0" shape="500.00,1000.00 503.20,1000.00 500.00,1000.00">
        <request index="0" response="0" foes="0" cont="0"/>
    </junction>
    <junction id="S" type="priority" x="500.00" y="0.00" incLanes="TL2S_0" intLanes=":S_0_0" shape="500.00,0.00 496.80,0.00 500.00,0.00">
        <request index="0" response="0" foes="0" cont="0"/>
    </junction>
    <junction id="TL" type="traffic_light" x="500.00" y="500.00" incLanes="N2TL_0 E2TL_0 S2TL_0 W2TL_0" intLanes=":TL_0_0 :TL_1_0 :TL_16_0 :TL_17_0 :TL_4_0 :TL_5_0 :TL_18_0 :TL_19_0 :TL_8_0 :TL_9_0 :TL_20_0 :TL_21_0 :TL_12_0 :TL_13_0 :TL_22_0 :TL_23_0" shape="496.80,507.20 503.20,507.20 503.64,504.98 504.20,504.20 504.98,503.64 505.98,503.31 507.20,503.20 507.20,496.80 504.98,496.36 504.20,495.80 503.64,495.02 503.31,494.02 503.20,492.80 496.80,492.80 496.36,495.02 495.80,495.80 495.02,496.36 494.02,496.69 492.80,496.80 492.80,503.20 495.02,503.64 495.80,504.20 496.36,504.98 496.69,505.98">
        <request index="0"  response="0000000000000000" foes="1000010000100000" cont="0"/>
        <request index="1"  response="0100000001000000" foes="0111110001100000" cont="0"/>
        <request index="2"  response="0100011101000000" foes="0110011111100000" cont="1"/>
        <request index="3"  response="0100001000010000" foes="0100001000010000" cont="1"/>
        <request index="4"  response="0000001000000000" foes="0100001000001000" cont="0"/>
        <request index="5"  response="0000011000000111" foes="1100011000000111" cont="0"/>
        <request index="6"  response="0111011000000110" foes="0111111000000110" cont="1"/>
        <request index="7"  response="0010000100000100" foes="0010000100000100" cont="1"/>
        <request index="8"  response="0000000000000000" foes="0010000010000100" cont="0"/>
        <request index="9"  response="0100000001000000" foes="0110000001111100" cont="0"/>
        <request index="10" response="0100000001000011" foes="1110000001100111" cont="1"/>
        <request index="11" response="0001000001000010" foes="0001000001000010" cont="1"/>
        <request index="12" response="0000000000000010" foes="0000100001000010" cont="0"/>
        <request index="13" response="0000011100000110" foes="0000011111000110" cont="0"/>
        <request index="14" response="0000011000110110" foes="0000011001111110" cont="1"/>
        <request index="15" response="0000010000100001" foes="0000010000100001" cont="1"/>
    </junction>
    <junction id="W" type="priority" x="0.00" y="500.00" incLanes="TL2W_0" intLanes=":W_0_0" shape="0.00,500.00 0.00,503.20 0.00,500.00">
        <request index="0" response="0" foes="0" cont="0"/>
    </junction>

    <junction id=":TL_16_0" type="internal" x="499.04" y="503.20" incLanes=":TL_2_0 S2TL_0" intLanes=":TL_5_0 :TL_6_0 :TL_7_0 :TL_8_0 :TL_9_0 :TL_13_0 :TL_14_0"/>
    <junction id=":TL_17_0" type="internal" x="499.20" y="506.00" incLanes=":TL_3_0 E2TL_0 S2TL_0 W2TL_0" intLanes=":TL_4_0 :TL_9_0 :TL_14_0"/>
    <junction id=":TL_18_0" type="internal" x="503.20" y="500.96" incLanes=":TL_6_0 W2TL_0" intLanes=":TL_1_0 :TL_2_0 :TL_9_0 :TL_10_0 :TL_11_0 :TL_12_0 :TL_13_0"/>
    <junction id=":TL_19_0" type="internal" x="506.00" y="500.80" incLanes=":TL_7_0 N2TL_0 S2TL_0 W2TL_0" intLanes=":TL_2_0 :TL_8_0 :TL_13_0"/>
    <junction id=":TL_20_0" type="internal" x="500.96" y="496.80" incLanes=":TL_10_0 N2TL_0" intLanes=":TL_0_0 :TL_1_0 :TL_5_0 :TL_6_0 :TL_13_0 :TL_14_0 :TL_15_0"/>
    <junction id=":TL_21_0" type="internal" x="500.80" y="494.00" incLanes=":TL_11_0 E2TL_0 N2TL_0 W2TL_0" intLanes=":TL_1_0 :TL_6_0 :TL_12_0"/>
    <junction id=":TL_22_0" type="internal" x="496.80" y="499.04" incLanes=":TL_14_0 E2TL_0" intLanes=":TL_1_0 :TL_2_0 :TL_3_0 :TL_4_0 :TL_5_0 :TL_9_0 :TL_10_0"/>
    <junction id=":TL_23_0" type="internal" x="494.00" y="499.20" incLanes=":TL_15_0 E2TL_0 N2TL_0 S2TL_0" intLanes=":TL_0_0 :TL_5_0 :TL_10_0"/>

    <connection from="E2TL" to="TL2N" fromLane="0" toLane="0" via=":TL_4_0" tl="TL" linkIndex="4" dir="r" state="o"/>
    <connection from="E2TL" to="TL2W" fromLane="0" toLane="0" via=":TL_5_0" tl="TL" linkIndex="5" dir="s" state="o"/>
    <connection from="E2TL" to="TL2S" fromLane="0" toLane="0" via=":TL_6_0" tl="TL" linkIndex="6" dir="l" state="o"/>
    <connection from="E2TL" to="TL2E" fromLane="0" toLane="0" via=":TL_7_0" tl="TL" linkIndex="7" dir="t" state="o"/>
    <connection from="N2TL" to="TL2W" fromLane="0" toLane="0" via=":TL_0_0" tl="TL" linkIndex="0" dir="r" state="O"/>
    <connection from="N2TL" to="TL2S" fromLane="0" toLane="0" via=":TL_1_0" tl="TL" linkIndex="1" dir="s" state="O"/>
    <connection from="N2TL" to="TL2E" fromLane="0" toLane="0" via=":TL_2_0" tl="TL" linkIndex="2" dir="l" state="o"/>
    <connection from="N2TL" to="TL2N" fromLane="0" toLane="0" via=":TL_3_0" tl="TL" linkIndex="3" dir="t" state="o"/>
    <connection from="S2TL" to="TL2E" fromLane="0" toLane="0" via=":TL_8_0" tl="TL" linkIndex="8" dir="r" state="O"/>
    <connection from="S2TL" to="TL2N" fromLane="0" toLane="0" via=":TL_9_0" tl="TL" linkIndex="9" dir="s" state="O"/>
    <connection from="S2TL" to="TL2W" fromLane="0" toLane="0" via=":TL_10_0" tl="TL" linkIndex="10" dir="l" state="o"/>
    <connection from="S2TL" to="TL2S" fromLane="0" toLane="0" via=":TL_11_0" tl="TL" linkIndex="11" dir="t" state="o"/>
    <connection from="TL2E" to="E2TL" fromLane="0" toLane="0" via=":E_0_0" dir="t" state="M"/>
    <connection from="TL2N" to="N2TL" fromLane="0" toLane="0" via=":N_0_0" dir="t" state="M"/>
    <connection from="TL2S" to="S2TL" fromLane="0" toLane="0" via=":S_0_0" dir="t" state="M"/>
    <connection from="TL2W" to="W2TL" fromLane="0" toLane="0" via=":W_0_0" dir="t" state="M"/>
    <connection from="W2TL" to="TL2S" fromLane="0" toLane="0" via=":TL_12_0" tl="TL" linkIndex="12" dir="r" state="o"/>
    <connection from="W2TL" to="TL2E" fromLane="0" toLane="0" via=":TL_13_0" tl="TL" linkIndex="13" dir="s" state="o"/>
    <connection from="W2TL" to="TL2N" fromLane="0" toLane="0" via=":TL_14_0" tl="TL" linkIndex="14" dir="l" state="o"/>
    <connection from="W2TL" to="TL2W" fromLane="0" toLane="0" via=":TL_15_0" tl="TL" linkIndex="15" dir="t" state="o"/>

    <connection from=":E_0" to="E2TL" fromLane="0" toLane="0" dir="t" state="M"/>
    <connection from=":N_0" to="N2TL" fromLane="0" toLane="0" dir="t" state="M"/>
    <connection from=":S_0" to="S2TL" fromLane="0" toLane="0" dir="t" state="M"/>
    <connection from=":TL_0" to="TL2W" fromLane="0" toLane="0" dir="r" state="M"/>
    <connection from=":TL_1" to="TL2S" fromLane="0" toLane="0" dir="s" state="M"/>
    <connection from=":TL_2" to="TL2E" fromLane="0" toLane="0" via=":TL_16_0" dir="l" state="m"/>
    <connection from=":TL_16" to="TL2E" fromLane="0" toLane="0" dir="l" state="M"/>
    <connection from=":TL_3" to="TL2N" fromLane="0" toLane="0" via=":TL_17_0" dir="t" state="m"/>
    <connection from=":TL_17" to="TL2N" fromLane="0" toLane="0" dir="t" state="M"/>
    <connection from=":TL_4" to="TL2N" fromLane="0" toLane="0" dir="r" state="M"/>
    <connection from=":TL_5" to="TL2W" fromLane="0" toLane="0" dir="s" state="M"/>
    <connection from=":TL_6" to="TL2S" fromLane="0" toLane="0" via=":TL_18_0" dir="l" state="m"/>
    <connection from=":TL_18" to="TL2S" fromLane="0" toLane="0" dir="l" state="M"/>
    <connection from=":TL_7" to="TL2E" fromLane="0" toLane="0" via=":TL_19_0" dir="t" state="m"/>
    <connection from=":TL_19" to="TL2E" fromLane="0" toLane="0" dir="t" state="M"/>
    <connection from=":TL_8" to="TL2E" fromLane="0" toLane="0" dir="r" state="M"/>
    <connection from=":TL_9" to="TL2N" fromLane="0" toLane="0" dir="s" state="M"/>
    <connection from=":TL_10" to="TL2W" fromLane="0" toLane="0" via=":TL_20_0" dir="l" state="m"/>
    <connection from=":TL_20" to="TL2W" fromLane="0" toLane="0" dir="l" state="M"/>
    <connection from=":TL_11" to="TL2S" fromLane="0" toLane="0" via=":TL_21_0" dir="t" state="m"/>
    <connection from=":TL_21" to="TL2S" fromLane="0" toLane="0" dir="t" state="M"/>
    <connection from=":TL_12" to="TL2S" fromLane="0" toLane="0" dir="r" state="M"/>
    <connection from=":TL_13" to="TL2E" fromLane="0" toLane="0" dir="s" state="M"/>
    <connection from=":TL_14" to="TL2N" fromLane="0" toLane="0" via=":TL_22_0" dir="l" state="m"/>
    <connection from=":TL_22" to="TL2N" fromLane="0" toLane="0" dir="l" state="M"/>
    <connection from=":TL_15" to="TL2W" fromLane="0" toLane="0" via=":TL_23_0" dir="t" state="m"/>
    <connection from=":TL_23" to="TL2W" fromLane="0" toLane="0" dir="t" state="M"/>
    <connection from=":W_0" to="W2TL" fromLane="0" toLane="0" dir="t" state="M"/>

</net>
