<nodes>
    <node id="N" x="0" y="500"/>
    <node id="S" x="0" y="-500"/>
    <node id="E" x="500" y="0"/>
    <node id="W" x="-500" y="0"/>
    <node id="TL" x="0" y="0" type="traffic_light"/>
</nodes>
