<?xml version="1.0" encoding="UTF-8"?>

<routes>
    <vType id="car"
           accel="2.6"
           decel="4.5"
           sigma="0.5"
           length="5"
           maxSpeed="13"/>

    <vType id="ambulance"
           accel="2.0"
           decel="4.5"
           length="5"
           maxSpeed="25"
           color="1,0,0"
           guiShape="emergency"/>

    <!-- Routes -->
    <route id="N_S" edges="N2TL TL2S"/>
    <route id="S_N" edges="S2TL TL2N"/>
    <route id="E_W" edges="E2TL TL2W"/>
    <route id="W_E" edges="W2TL TL2E"/>

    <!-- Normal traffic flows -->
    <flow id="flow_NS" type="car" route="N_S" begin="0" end="3600" vehsPerHour="600"/>
    <flow id="flow_SN" type="car" route="S_N" begin="0" end="3600" vehsPerHour="600"/>
    <flow id="flow_EW" type="car" route="E_W" begin="0" end="3600" vehsPerHour="400"/>
    <flow id="flow_WE" type="car" route="W_E" begin="0" end="3600" vehsPerHour="400"/>

    <!-- Ambulance -->
    
</routes>
