<?xml version="1.0" encoding="UTF-8"?>

<additional>
    <tlLogic id="TL" type="static" programID="0" offset="0">

        <!-- Phase 0: North–South Green -->
        <phase duration="30" state="GrGr"/>

        <!-- Phase 1: East–West Green -->
        <phase duration="30" state="rGrG"/>

    </tlLogic>
</additional>
